-------------------------------------------------------
          Amber 22 PMEMD                              2022
          -------------------------------------------------------

  [-O]verwriting output

File Assignments:

 Here is the input file:

Relax MD
 &cntrl
  imin = 0,
  irest = 1,
  ntx = 5,
  nstlim = 500000,
  dt = 0.002,
  cut = 9.0,
  iwrap = 0,

  ntr = 0,
  restraint_wt = 0.0,

  ntb = 2,
  ntp = 1,
  pres0 = 1.0,
  taup = 2.0,
  barostat = 2,

  ntc = 2,
  ntf = 2,

  ntt = 3,
  gamma_ln = 2.0,
  tempi = 298.15,
  temp0 = 298.15,
  ig = -1,

  ioutfm = 1,
  ntpr = 2500,
  ntwx = 2500,
  ntwr = 2500,
 /

Note: ig = -1. Setting random seed to   437769 based on wallclock time in
      microseconds.

--------------------------------------------------------------------------------
   1.  RESOURCE   USE:
--------------------------------------------------------------------------------

 getting box info from netcdf restart file
 NATOM  =   36008 NTYPES =      12 NBONH =   35903 MBONA  =     104
 NTHETH =     243 MTHETA =     140 NPHIH =     486 MPHIA  =     455
 NHPARM =       0 NPARM  =       0 NNB   =   48887 NRES   =   11947
 NBONA  =     104 NTHETA =     140 NPHIA =     455 NUMBND =      38
 NUMANG =      87 NPTRA  =     123 NATYP =      22 NPHB   =       0
 IFBOX  =       2 NMXRS  =      24 IFCAP =       0 NEXTRA =       0
 NCOPY  =       0

     BOX TYPE: TRUNCATED OCTAHEDRON

--------------------------------------------------------------------------------
   2.  CONTROL  DATA  FOR  THE  RUN
--------------------------------------------------------------------------------

SER

General flags:
     imin    =       0, nmropt  =       0

Nature and format of input:
     ntx     =       5, irest   =       1, ntrx    =       1

Nature and format of output:
     ntxo    =       2, ntpr    =    2500, ntrx    =       1, ntwr    =    2500
     iwrap   =       0, ntwx    =    2500, ntwv    =       0, ntwe    =       0
     ioutfm  =       1, ntwprt  =       0, idecomp =       0, rbornstat=      0

Potential function:
     ntf     =       2, ntb     =       2, igb     =       0, nsnb    =      25
     ipol    =       0, gbsa    =       0, iesp    =       0
     dielc   =   1.00000, cut     =   9.00000, intdiel =   1.00000

Frozen or restrained atoms:
     ibelly  =       0, ntr     =       0

Molecular dynamics:
     nstlim  =    500000, nscm    =      1000, nrespa  =         1
     t       =   0.00000, dt      =   0.00200, vlimit  =  -1.00000

Langevin dynamics temperature regulation:
     ig      =  437769
     temp0   = 298.15000, tempi   = 298.15000, gamma_ln=   2.00000

Pressure regulation:
     ntp     =       1
     pres0   =   1.00000, comp    =  44.60000, taup    =   2.00000
     Monte-Carlo Barostat:
     mcbarint  =     100

SHAKE:
     ntc     =       2, jfastw  =       0
     tol     =   0.00001

Ewald parameters:
     verbose =       0, ew_type =       0, nbflag  =       1, use_pme =       1
     vdwmeth =       1, eedmeth =       1, netfrc  =       1
     Box X =   77.877   Box Y =   77.877   Box Z =   77.877
     Alpha =  109.471   Beta  =  109.471   Gamma =  109.471
     NFFT1 =   80       NFFT2 =   80       NFFT3 =   80
     Cutoff=    9.000   Tol   =0.100E-04
     Ewald Coefficient =  0.30768
     Interpolation order =    4

--------------------------------------------------------------------------------
   3.  ATOMIC COORDINATES AND VELOCITIES
--------------------------------------------------------------------------------

SER
 begin time read from input coords =    40.000 ps

 Number of triangulated 3-point waters found:    11932

     Sum of charges from parm topology file =   0.00000000
     Forcing neutrality...

--------------------------------------------------------------------------------
   4.  RESULTS
 NSTEP =     2500   TIME(PS) =      45.000  TEMP(K) =   298.07  PRESS =     0.0
 Etot   =    -93243.2952  EKtot   =     21359.4199  EPtot      =   -114602.7151
 BOND   =        25.4820  ANGLE   =       116.2496  DIHED      =       173.9482
 1-4 NB =        46.9201  1-4 EEL =       412.6240  VDWAALS    =     17068.1600
 EELEC  =   -132446.0990  EHBOND  =         0.0000  RESTRAINT  =         0.0000
 EKCMT  =         0.0000  VIRIAL  =         0.0000  VOLUME     =    363345.6306
                                                    Density    =         0.9894
 ------------------------------------------------------------------------------

      A V E R A G E S   O V E R     200 S T E P S

 NSTEP =   500000   TIME(PS) =    1040.000  TEMP(K) =   297.97  PRESS =     0.0
 Etot   =    -93260.6060  EKtot   =     21352.1431  EPtot      =   -114612.7491
 BOND   =        39.9288  ANGLE   =       106.1553  DIHED      =       168.0273
 1-4 NB =        43.7218  1-4 EEL =       420.9308  VDWAALS    =     17014.7375
 EELEC  =   -132406.2507  EHBOND  =         0.0000  RESTRAINT  =         0.0000
 EKCMT  =         0.0000  VIRIAL  =         0.0000  VOLUME     =    364307.3635
                                                    Density    =         0.9868
 ------------------------------------------------------------------------------

      R M S  F L U C T U A T I O N S

 NSTEP =   500000   TIME(PS) =    1040.000  TEMP(K) =     1.51  PRESS =     0.0
 Etot   =       211.0604  EKtot   =       107.9953  EPtot      =       175.9504
 BOND   =         5.3510  ANGLE   =         8.9318  DIHED      =         4.6983
 1-4 NB =         3.0353  1-4 EEL =         9.8155  VDWAALS    =       180.5123
 EELEC  =       297.7559  EHBOND  =         0.0000  RESTRAINT  =         0.0000
 EKCMT  =         0.0000  VIRIAL  =         0.0000  VOLUME     =       924.3589
                                                    Density    =         0.0025
 ------------------------------------------------------------------------------
